07_CYME/Flay 12-01 - 2-3-15 loads (original).sxst_DSS/Lines.dss
New Line.258405881 Phases= 3 Bus1=258405878.1.2.3 Bus2=258405883.1.2.3 Length=65.33  units=m  Spacing=8'-ARM-STANDARD-3PH wires=['1/0-ACSR-B-6X1' '1/0-ACSR-B-6X1' '1/0-ACSR-B-6X1' '1/0-ACSR-B-6X1']
New Line.385859011 Phases= 3 Bus1=259596203.1.2.3 Bus2=385859010.1.2.3 Length=50.94  units=m  Spacing=8'-ARM-STANDARD-3PH wires=['1/0-ACSR-B-6X1' '1/0-ACSR-B-6X1' '1/0-ACSR-B-6X1' '1/0-ACSR-B-6X1']
New Line.263395361 Phases= 1 Bus1=258425615.1     Bus2=263395363.1     Length=1.52   units=m  Spacing=VERTICAL-1-PH-60-1PH wires=['2-ACSR-B-6X1' '2-ACSR-B-6X1']
New Line.263395303 Phases= 1 Bus1=263395300.3     Bus2=258425488.3     Length=154.10 units=m  Spacing=VERTICAL-1-PH-60-1PH wires=['4-ACSR-B-6X1' '4-ACSR-B-6X1']
New Line.263395325 Bus1=258406233.2     Bus2=263395327.2     LineCode=1/0-AL-HMWPECN-15KV Phases= 1 Length=1.52   units=m
New Line.263391412 Phases= 1 Bus1=263391409.1     Bus2=258406073.1     Length=153.70 units=m  Spacing=VERTICAL-1-PH-60-1PH wires=['2-ACSR-B-6X1' '2-ACSR-B-6X1']
New Line.258425185 Phases= 1 Bus1=258425182.1     Bus2=258425187.1     Length=83.96  units=m  Spacing=VERTICAL-1-PH-60-1PH wires=['2-ACSR-B-6X1' '2-ACSR-B-6X1']
New Line.263709231 Bus1=259217100.3     Bus2=263709233.3     LineCode=1/0-AL-TRXLPELCJ-15KV Phases= 1 Length=1.52   units=m
New Line.258425401 Phases= 1 Bus1=258425402.2     Bus2=258425403.2     Length=91.53  units=m  Spacing=VERTICAL-1-PH-60-1PH wires=['2-ACSR-B-6X1' '2-ACSR-B-6X1']
New Line.263866168 Phases= 1 Bus1=263866165.2     Bus2=259374992.2     Length=27.41  units=m  Spacing=VERTICAL-1-PH-104-1PH wires=['2-ACSR-B-6X1' '2-ACSR-B-6X1']
New Line.263782323 Phases= 3 Bus1=263782320.1.2.3 Bus2=258425972.1.2.3 Length=41.23  units=m  Spacing=8'-ARM-NON-CENTER-POST-3PH wires=['2-ACSR-B-6X1' '2-ACSR-B-6X1' '2-ACSR-B-6X1' '2-ACSR-B-6X1']
New Line.258406680 Phases= 2 Bus1=258406677.2.3   Bus2=258406682.2.3   Length=26.16  units=m  Spacing=8'-ARM-STANDARD-2PH wires=['2-ACSR-B-6X1' '2-ACSR-B-6X1' '2-ACSR-B-6X1']
New Line.258443592 Phases= 1 Bus1=258443589.3     Bus2=258443594.3     Length=476.60 units=m  Spacing=VERTICAL-1-PH-60-1PH wires=['2-ACSR-B-6X1' '2-ACSR-B-6X1']
New Line.258405926 Phases= 3 Bus1=258405918.1.2.3 Bus2=258405928.1.2.3 Length=209.20 units=m  Spacing=8'-ARM-STANDARD-3PH wires=['1/0-ACSR-B-6X1' '1/0-ACSR-B-6X1' '1/0-ACSR-B-6X1' '1/0-ACSR-B-6X1']
New Line.258425252 Phases= 3 Bus1=258425247.1.2.3 Bus2=258425254.1.2.3 Length=119.80 units=m  Spacing=8'-ARM-NON-CENTER-POST-3PH wires=['1/0-ACSR-B-6X1' '1/0-ACSR-B-6X1' '1/0-ACSR-B-6X1' '2-ACSR-B-6X1']
New Line.450041294 Phases= 1 Bus1=258443729.1     Bus2=450041290.1     Length=86.50  units=m  Spacing=VERTICAL-1-PH-60-1PH wires=['2-ACSR-B-6X1' '2-ACSR-B-6X1']
New Line.259529048 Phases= 1 Bus1=259529045.1     Bus2=259529050.1     Length=73.08  units=m  Spacing=VERTICAL-1-PH-104-1PH wires=['2-ACSR-B-6X1' '2-ACSR-B-6X1']
New Line.263998654 Phases= 1 Bus1=263998651.3     Bus2=259552831.3     Length=103.40 units=m  Spacing=VERTICAL-1-PH-104-1PH wires=['2-ACSR-B-6X1' '2-ACSR-B-6X1']
New Line.258425875 Phases= 1 Bus1=258425872.1     Bus2=258425877.1     Length=144.70 units=m  Spacing=VERTICAL-1-PH-60-1PH wires=['2-ACSR-B-6X1' '2-ACSR-B-6X1']
New Line.384503026 Bus1=384503022.1     Bus2=384502996.1     LineCode=1/0-AL-TRXLPELCJ-25KV Phases= 1 Length=247.70 units=m
New Line.258443542 Phases= 3 Bus1=258443534.1.2.3 Bus2=258443544.1.2.3 Length=141.70 units=m  Spacing=8'-ARM-NON-CENTER-POST-3PH wires=['2-ACSR-B-6X1' '2-ACSR-B-6X1' '2-ACSR-B-6X1' '2-ACSR-B-6X1']
New Line.258405986 Phases= 1 Bus1=258405983.3     Bus2=258405988.3     Length=66.70  units=m  Spacing=VERTICAL-1-PH-60-1PH wires=['2-ACSR-B-6X1' '2-ACSR-B-6X1']
New Line.260981163 Bus1=260981164.3     Bus2=260981165.3     LineCode=1/0-AL-TRXLPELCJ-15KV Phases= 1 Length=126.80 units=m
New Line.258443437 Phases= 3 Bus1=258443434.1.2.3 Bus2=258443439.1.2.3 Length=46.77  units=m  Spacing=8'-ARM-NON-CENTER-POST-3PH wires=['2-ACSR-B-6X1' '2-ACSR-B-6X1' '2-ACSR-B-6X1' '2-ACSR-B-6X1']
New Line.258425135 Phases= 3 Bus1=258425132.1.2.3 Bus2=258425137.1.2.3 Length=99.71  units=m  Spacing=8'-ARM-STANDARD-3PH wires=['1/0-ACSR-B-6X1' '1/0-ACSR-B-6X1' '1/0-ACSR-B-6X1' '1/0-ACSR-B-6X1']
New Line.384331491 Bus1=384331487.3     Bus2=384331483.3     LineCode=1/0-AL-TRXLPELCJ-25KV Phases= 1 Length=95.80  units=m
New Line.258405615 Phases= 3 Bus1=258405612.1.2.3 Bus2=258405617.1.2.3 Length=113.10 units=m  Spacing=HORIZ-LINE-POST-3PH wires=['336-AAC-B-19' '336-AAC-B-19' '336-AAC-B-19' '1/0-ACSR-B-6X1']
New Line.258406553 Phases= 1 Bus1=258406550.3     Bus2=258406555.3     Length=75.84  units=m  Spacing=VERTICAL-1-PH-60-1PH wires=['2-ACSR-B-6X1' '2-ACSR-B-6X1']
New Line.384502987 Phases= 1 Bus1=384502983.1     Bus2=384502968.1     Length=52.16  units=m  Spacing=VERTICAL-1-PH-60-1PH wires=['2-ACSR-B-6X1' '2-ACSR-B-6X1']
New Line.261434115 Bus1=261434112.2     Bus2=261434117.2     LineCode=1/0-AL-TRXLPELCJ-15KV Phases= 1 Length=132.10 units=m
New Line.263733357 Phases= 3 Bus1=263733354.1.2.3 Bus2=258443392.1.2.3 Length=80.71  units=m  Spacing=HORIZ-LINE-POST-3PH wires=['2-ACSR-B-6X1' '2-ACSR-B-6X1' '2-ACSR-B-6X1' '2-ACSR-B-6X1']
New Line.258406206 Phases= 1 Bus1=258406198.3     Bus2=258406208.3     Length=98.30  units=m  Spacing=VERTICAL-1-PH-60-1PH wires=['2-ACSR-B-6X1' '2-ACSR-B-6X1']
New Line.263391506 Bus1=258406338.1     Bus2=263391508.1     LineCode=1/0-AL-HMWPECN-15KV Phases= 1 Length=1.53   units=m
New Line.258425501 Phases= 1 Bus1=258425498.3     Bus2=258425503.3     Length=141.90 units=m  Spacing=VERTICAL-1-PH-60-1PH wires=['4-ACSR-B-6X1' '4-ACSR-B-6X1']
New Line.258425140 Phases= 3 Bus1=258425132.1.2.3 Bus2=258425142.1.2.3 Length=52.88  units=m  Spacing=8'-ARM-STANDARD-3PH wires=['1/0-ACSR-B-6X1' '1/0-ACSR-B-6X1' '1/0-ACSR-B-6X1' '1/0-ACSR-B-6X1']
New Line.258406376 Phases= 3 Bus1=258406373.1.2.3 Bus2=258406378.1.2.3 Length=175.30 units=m  Spacing=8'-ARM-STANDARD-3PH wires=['1/0-ACSR-B-6X1' '1/0-ACSR-B-6X1' '1/0-ACSR-B-6X1' '1/0-ACSR-B-6X1']
New Line.258405911 Phases= 3 Bus1=258405898.1.2.3 Bus2=258405913.1.2.3 Length=72.13  units=m  Spacing=8'-ARM-STANDARD-3PH wires=['1/0-ACSR-B-6X1' '1/0-ACSR-B-6X1' '1/0-ACSR-B-6X1' '1/0-ACSR-B-6X1']
New Line.258406660 Phases= 1 Bus1=258406657.3     Bus2=258406662.3     Length=79.22  units=m  Spacing=VERTICAL-1-PH-60-1PH wires=['2-ACSR-B-6X1' '2-ACSR-B-6X1']
New Line.260028118 Phases= 3 Bus1=258426019.1.2.3 Bus2=258426033.1.2.3 Length=131.10 units=m  Spacing=8'-ARM-NON-CENTER-POST-3PH wires=['2-ACSR-B-6X1' '2-ACSR-B-6X1' '2-ACSR-B-6X1' '2-ACSR-B-6X1']
New Line.263909229 Bus1=259418041.1     Bus2=263909231.1     LineCode=1/0-AL-TRXLPELCJ-15KV Phases= 1 Length=1.53   units=m
New Line.258443547 Phases= 3 Bus1=258443544.1.2.3 Bus2=258443549.1.2.3 Length=123.90 units=m  Spacing=8'-ARM-NON-CENTER-POST-3PH wires=['2-ACSR-B-6X1' '2-ACSR-B-6X1' '2-ACSR-B-6X1' '2-ACSR-B-6X1']
New Line.258425618 Phases= 3 Bus1=258425615.1.2.3 Bus2=258425620.1.2.3 Length=48.51  units=m  Spacing=8'-ARM-STANDARD-3PH wires=['1/0-ACSR-B-6X1' '1/0-ACSR-B-6X1' '1/0-ACSR-B-6X1' '1/0-ACSR-B-6X1']
New Line.258425910 Phases= 1 Bus1=258425907.3     Bus2=258425912.3     Length=88.76  units=m  Spacing=VERTICAL-1-PH-60-1PH wires=['2-ACSR-B-6X1' '2-ACSR-B-6X1']
New Line.258425935 Phases= 3 Bus1=258425932.1.2.3 Bus2=258425937.1.2.3 Length=75.54  units=m  Spacing=8'-ARM-NON-CENTER-POST-3PH wires=['2-ACSR-B-6X1' '2-ACSR-B-6X1' '2-ACSR-B-6X1' '2-ACSR-B-6X1']
New Line.259207573 Phases= 3 Bus1=258426146.1.2.3 Bus2=258443386.1.2.3 Length=99.52  units=m  Spacing=HORIZ-LINE-POST-3PH wires=['2-ACSR-B-6X1' '2-ACSR-B-6X1' '2-ACSR-B-6X1' '2-ACSR-B-6X1']
New Line.258425436 Phases= 1 Bus1=258425428.2     Bus2=258425438.2     Length=129.70 units=m  Spacing=VERTICAL-1-PH-60-1PH wires=['2-ACSR-B-6X1' '2-ACSR-B-6X1']
New Line.258406346 Phases= 1 Bus1=258406343.1     Bus2=258406348.1     Length=41.59  units=m  Spacing=VERTICAL-1-PH-60-1PH wires=['2-ACSR-B-6X1' '2-ACSR-B-6X1']
New Line.259239356 Phases= 3 Bus1=258406485.1.2.3 Bus2=258406494.1.2.3 Length=21.85  units=m  Spacing=8'-ARM-NON-CENTER-POST-3PH wires=['2-ACSR-B-6X1' '2-ACSR-B-6X1' '2-ACSR-B-6X1' '2-ACSR-B-6X1']
New Line.263399263 Phases= 1 Bus1=258443579.3     Bus2=263399265.3     Length=1.53   units=m  Spacing=VERTICAL-1-PH-60-1PH wires=['2-ACSR-B-6X1' '2-ACSR-B-6X1']
New Line.263395402 Bus1=263395399.1.2.3 Bus2=260663870.1.2.3 LineCode=1/0-AL-HMWPECN-15KV Phases= 3 Length=108.70 units=m
New Line.259228584 Phases= 1 Bus1=259228581.3     Bus2=259228586.3     Length=73.49  units=m  Spacing=VERTICAL-1-PH-104-1PH wires=['2-ACSR-B-6X1' '2-ACSR-B-6X1']
New Line.699613184 Phases= 1 Bus1=699613181.2     Bus2=258405672.2     Length=24.05  units=m  Spacing=VERTICAL-1-PH-60-1PH wires=['2-ACSR-B-6X1' '2-ACSR-B-6X1']
New Line.258443672 Phases= 1 Bus1=258443669.2     Bus2=258443674.2     Length=54.42  units=m  Spacing=VERTICAL-1-PH-60-1PH wires=['2-ACSR-B-6X1' '2-ACSR-B-6X1']
New Line.258425780 Phases= 3 Bus1=258425777.1.2.3 Bus2=258425782.1.2.3 Length=253.40 units=m  Spacing=8'-ARM-STANDARD-3PH wires=['1/0-ACSR-B-6X1' '2-ACSR-B-6X1' '1/0-ACSR-B-6X1' '2-ACSR-B-6X1']
New Line.263395267 Bus1=263395264.2     Bus2=260663825.2     LineCode=1/0-AL-HMWPECN-15KV Phases= 1 Length=222.90 units=m
New Line.258425678 Phases= 1 Bus1=258425675.1     Bus2=258425680.1     Length=137.40 units=m  Spacing=VERTICAL-1-PH-60-1PH wires=['2-ACSR-B-6X1' '2-ACSR-B-6X1']
New Line.263395240 Phases= 1 Bus1=263395237.3     Bus2=258425264.3     Length=140.80 units=m  Spacing=VERTICAL-1-PH-60-1PH wires=['2-ACSR-B-6X1' '2-ACSR-B-6X1']
New Line.258443949 Phases= 1 Bus1=258443941.3     Bus2=258443951.3     Length=76.93  units=m  Spacing=VERTICAL-1-PH-60-1PH wires=['1/0-ACSR-B-6X1' '1/0-ACSR-B-6X1']
New Line.258406518 Phases= 3 Bus1=258406515.1.2.3 Bus2=258406520.1.2.3 Length=91.12  units=m  Spacing=8'-ARM-NON-CENTER-POST-3PH wires=['2-ACSR-B-6X1' '2-ACSR-B-6X1' '2-ACSR-B-6X1' '2-ACSR-B-6X1']
New Line.259149285 Phases= 1 Bus1=258443981.3     Bus2=259149287.3     Length=72.83  units=m  Spacing=VERTICAL-1-PH-104-1PH wires=['2-ACSR-B-6X1' '2-ACSR-B-6X1']
New Line.263399178 Bus1=263399175.2     Bus2=260664681.2     LineCode=1/0-AL-HMWPECN-15KV Phases= 1 Length=205.50 units=m
New Line.258443914 Phases= 1 Bus1=258443911.3     Bus2=258443916.3     Length=44.72  units=m  Spacing=VERTICAL-1-PH-60-1PH wires=['1/0-ACSR-B-6X1' '1/0-ACSR-B-6X1']
New Line.258443727 Phases= 1 Bus1=258443724.1     Bus2=258443729.1     Length=41.88  units=m  Spacing=VERTICAL-1-PH-60-1PH wires=['2-ACSR-B-6X1' '2-ACSR-B-6X1']
New Line.259266157 Phases= 3 Bus1=258425075.1.2.3 Bus2=258425166.1.2.3 Length=109.50 units=m  Spacing=8'-ARM-NON-CENTER-POST-3PH wires=['2-ACSR-B-6X1' '2-ACSR-B-6X1' '2-ACSR-B-6X1' '2-ACSR-B-6X1']
New Line.258425663 Phases= 1 Bus1=258425660.1     Bus2=258425665.1     Length=124.30 units=m  Spacing=VERTICAL-1-PH-60-1PH wires=['2-ACSR-B-6X1' '2-ACSR-B-6X1']
New Line.384399846 Phases= 3 Bus1=258406465.1.2.3 Bus2=384399848.1.2.3 Length=1.52   units=m  Spacing=8'-ARM-NON-CENTER-POST-3PH wires=['1/0-ACSR-B-6X1' '1/0-ACSR-B-6X1' '1/0-ACSR-B-6X1' '2-ACSR-B-6X1']
New Line.491242325 Phases= 1 Bus1=491242313.2     Bus2=491242302.2     Length=101.20 units=m  Spacing=VERTICAL-1-PH-104-1PH wires=['2-ACSR-B-6X1' '2-ACSR-B-6X1']
New Line.615922790 Phases= 2 Bus1=258406620.2.3   Bus2=615922792.2.3   Length=1.51   units=m  Spacing=8'-ARM-STANDARD-2PH wires=['2-ACSR-B-6X1' '2-ACSR-B-6X1' '2-ACSR-B-6X1']
New Line.258443607 Phases= 1 Bus1=258443604.3     Bus2=258443609.3     Length=62.75  units=m  Spacing=VERTICAL-1-PH-60-1PH wires=['2-ACSR-B-6X1' '2-ACSR-B-6X1']
New Line.258444157 Phases= 3 Bus1=258444154.1.2.3 Bus2=258444159.1.2.3 Length=224.90 units=m  Spacing=8'-ARM-NON-CENTER-POST-3PH wires=['2-ACSR-B-6X1' '2-ACSR-B-6X1' '2-ACSR-B-6X1' '2-ACSR-B-6X1']
New Line.258444202 Phases= 3 Bus1=258444199.1.2.3 Bus2=258444204.1.2.3 Length=42.84  units=m  Spacing=8'-ARM-NON-CENTER-POST-3PH wires=['2-ACSR-B-6X1' '2-ACSR-B-6X1' '2-ACSR-B-6X1' '2-ACSR-B-6X1']
New Line.258406421 Phases= 3 Bus1=258406388.1.2.3 Bus2=258406423.1.2.3 Length=45.57  units=m  Spacing=8'-ARM-NON-CENTER-POST-3PH wires=['2-ACSR-B-6X1' '2-ACSR-B-6X1' '2-ACSR-B-6X1' '2-ACSR-B-6X1']
New Line.263391502 Phases= 1 Bus1=263391499.1     Bus2=258406258.1     Length=53.84  units=m  Spacing=VERTICAL-1-PH-60-1PH wires=['2-ACSR-B-6X1' '2-ACSR-B-6X1']
New Line.290021054 Phases= 3 Bus1=258425807.1.2.3 Bus2=290021056.1.2.3 Length=1.52   units=m  Spacing=8'-ARM-NON-CENTER-POST-3PH wires=['2-ACSR-B-6X1' '2-ACSR-B-6X1' '2-ACSR-B-6X1' '2-ACSR-B-6X1']
New Line.258425180 Phases= 1 Bus1=258425177.1     Bus2=258425182.1     Length=61.24  units=m  Spacing=VERTICAL-1-PH-60-1PH wires=['2-ACSR-B-6X1' '2-ACSR-B-6X1']
New Line.258425713 Phases= 3 Bus1=258425710.1.2.3 Bus2=258425715.1.2.3 Length=100.90 units=m  Spacing=8'-ARM-NON-CENTER-POST-3PH wires=['2-ACSR-B-6X1' '1/0-ACSR-B-6X1' '1/0-ACSR-B-6X1' '2-ACSR-B-6X1']
New Line.263395348 Bus1=263395345.2     Bus2=260663865.2     LineCode=1/0-AL-HMWPECN-15KV Phases= 1 Length=86.76  units=m
New Line.258443512 Phases= 3 Bus1=258443499.1.2.3 Bus2=258443514.1.2.3 Length=125.90 units=m  Spacing=8'-ARM-NON-CENTER-POST-3PH wires=['2-ACSR-B-6X1' '2-ACSR-B-6X1' '2-ACSR-B-6X1' '2-ACSR-B-6X1']
New Line.263395289 Phases= 1 Bus1=258406460.3     Bus2=263395291.3     Length=1.53   units=m  Spacing=VERTICAL-1-PH-60-1PH wires=['4-ACSR-B-6X1' '4-ACSR-B-6X1']
New Line.258425728 Phases= 3 Bus1=258425725.1.2.3 Bus2=258425730.1.2.3 Length=54.30  units=m  Spacing=8'-ARM-NON-CENTER-POST-3PH wires=['2-ACSR-B-6X1' '1/0-ACSR-B-6X1' '1/0-ACSR-B-6X1' '2-ACSR-B-6X1']
New Line.615922902 Phases= 3 Bus1=615922898.1.2.3 Bus2=258406605.1.2.3 Length=96.01  units=m  Spacing=8'-ARM-NON-CENTER-POST-3PH wires=['2-ACSR-B-6X1' '2-ACSR-B-6X1' '2-ACSR-B-6X1' '2-ACSR-B-6X1']
New Line.620861246 Phases= 3 Bus1=258425070.1.2.3 Bus2=620861248.1.2.3 Length=1.53   units=m  Spacing=8'-ARM-STANDARD-3PH wires=['1/0-ACSR-B-6X1' '1/0-ACSR-B-6X1' '1/0-ACSR-B-6X1' '1/0-ACSR-B-6X1']
New Line.264357164 Bus1=260662931.2     Bus2=264357162.2     LineCode=1/0-AL-TRXLPELCJ-15KV Phases= 1 Length=73.05  units=m
New Line.258425105 Phases= 1 Bus1=258425102.2     Bus2=258425107.2     Length=39.14  units=m  Spacing=VERTICAL-1-PH-60-1PH wires=['2-ACSR-B-6X1' '2-ACSR-B-6X1']
New Line.263399173 Bus1=258443424.2     Bus2=263399175.2     LineCode=1/0-AL-HMWPECN-15KV Phases= 1 Length=1.53   units=m
New Line.258425038 Phases= 3 Bus1=258425035.1.2.3 Bus2=258425040.1.2.3 Length=52.00  units=m  Spacing=8'-ARM-NON-CENTER-POST-3PH wires=['2-ACSR-B-6X1' '2-ACSR-B-6X1' '2-ACSR-B-6X1' '2-ACSR-B-6X1']
New Line.258443687 Phases= 1 Bus1=258443674.2     Bus2=258443689.2     Length=166.40 units=m  Spacing=VERTICAL-1-PH-60-1PH wires=['2-ACSR-B-6X1' '2-ACSR-B-6X1']
New Line.258425992 Phases= 3 Bus1=258425987.1.2.3 Bus2=258425994.1.2.3 Length=46.79  units=m  Spacing=8'-ARM-NON-CENTER-POST-3PH wires=['2-ACSR-B-6X1' '2-ACSR-B-6X1' '2-ACSR-B-6X1' '2-ACSR-B-6X1']
New Line.263399290 Phases= 1 Bus1=258425927.3     Bus2=263399292.3     Length=1.52   units=m  Spacing=VERTICAL-1-PH-60-1PH wires=['2-ACSR-B-6X1' '2-ACSR-B-6X1']
New Line.258406276 Phases= 1 Bus1=258406273.1     Bus2=258406278.1     Length=36.58  units=m  Spacing=VERTICAL-1-PH-60-1PH wires=['2-ACSR-B-6X1' '2-ACSR-B-6X1']
New Line.258443889 Phases= 1 Bus1=258443886.3     Bus2=258443891.3     Length=38.15  units=m  Spacing=VERTICAL-1-PH-60-1PH wires=['1/0-ACSR-B-6X1' '1/0-ACSR-B-6X1']
New Line.263663373 Bus1=259142547.3     Bus2=263663375.3     LineCode=1/0-AL-TRXLPELCJ-15KV Phases= 1 Length=1.52   units=m
New Line.263395294 Phases= 1 Bus1=263395291.3     Bus2=258425473.3     Length=100.30 units=m  Spacing=VERTICAL-1-PH-60-1PH wires=['4-ACSR-B-6X1' '4-ACSR-B-6X1']
New Line.259529043 Phases= 1 Bus1=258406143.1     Bus2=259529045.1     Length=68.51  units=m  Spacing=VERTICAL-1-PH-104-1PH wires=['2-ACSR-B-6X1' '2-ACSR-B-6X1']
New Line.263399236 Bus1=258443539.1     Bus2=263399238.1     LineCode=1/0-AL-TRXLPELCJ-15KV Phases= 1 Length=1.53   units=m
New Line.264353612 Bus1=261433676.2     Bus2=264353610.2     LineCode=1/0-AL-TRXLPELCJ-15KV Phases= 1 Length=508.60 units=m
New Line.259197613 Phases= 1 Bus1=258443916.3     Bus2=258443985.3     Length=61.05  units=m  Spacing=VERTICAL-1-PH-60-1PH wires=['1/0-ACSR-B-6X1' '1/0-ACSR-B-6X1']
New Line.258443400 Phases= 3 Bus1=258443397.1.2.3 Bus2=258443402.1.2.3 Length=85.35  units=m  Spacing=HORIZ-LINE-POST-3PH wires=['2-ACSR-B-6X1' '2-ACSR-B-6X1' '2-ACSR-B-6X1' '2-ACSR-B-6X1']
New Line.263395424 Bus1=258425882.1     Bus2=263395426.1     LineCode=1/0-AL-HMWPECN-15KV Phases= 1 Length=1.53   units=m
New Line.286927269 Phases= 1 Bus1=286927263.3     Bus2=286927271.3     Length=61.50  units=m  Spacing=VERTICAL-1-PH-104-1PH wires=['1/0-ACSR-B-6X1' '1/0-ACSR-B-6X1']
New Line.263733330 Phases= 1 Bus1=263733327.1     Bus2=258425735.1     Length=43.87  units=m  Spacing=VERTICAL-1-PH-60-1PH wires=['1/0-ACSR-B-6X1' '1/0-ACSR-B-6X1']
New Line.258443707 Phases= 1 Bus1=258443684.2     Bus2=258443709.2     Length=122.10 units=m  Spacing=VERTICAL-1-PH-60-1PH wires=['2-ACSR-B-6X1' '2-ACSR-B-6X1']
New Line.263399380 Phases= 1 Bus1=258444169.1     Bus2=263399382.1     Length=1.52   units=m  Spacing=VERTICAL-1-PH-60-1PH wires=['1/0-ACSR-B-6X1' '1/0-ACSR-B-6X1']
New Line.258444029 Phases= 1 Bus1=258444026.3     Bus2=258444031.3     Length=37.17  units=m  Spacing=VERTICAL-1-PH-60-1PH wires=['2-ACSR-B-6X1' '2-ACSR-B-6X1']
New Line.274934389 Phases= 1 Bus1=263391571.3     Bus2=258406600.3     Length=74.31  units=m  Spacing=VERTICAL-1-PH-60-1PH wires=['2-ACSR-B-6X1' '2-ACSR-B-6X1']
New Line.258405665 Phases= 3 Bus1=258405662.1.2.3 Bus2=258405667.1.2.3 Length=81.85  units=m  Spacing=HORIZ-LINE-POST-3PH wires=['336-AAC-B-19' '336-AAC-B-19' '336-AAC-B-19' '1/0-ACSR-B-6X1']
New Line.263395208 Bus1=258425187.1     Bus2=263395210.1     LineCode=1/0-AL-HMWPECN-15KV Phases= 1 Length=1.53   units=m
New Line.258443849 Phases= 1 Bus1=258443836.3     Bus2=258443851.3     Length=23.48  units=m  Spacing=VERTICAL-1-PH-60-1PH wires=['1/0-ACSR-B-6X1' '1/0-ACSR-B-6X1']
New Line.286927261 Phases= 1 Bus1=259596204.3     Bus2=286927263.3     Length=61.51  units=m  Spacing=VERTICAL-1-PH-104-1PH wires=['1/0-ACSR-B-6X1' '1/0-ACSR-B-6X1']
New Line.258424972 Phases= 3 Bus1=258424969.1.2.3 Bus2=258424974.1.2.3 Length=27.91  units=m  Spacing=8'-ARM-NON-CENTER-POST-3PH wires=['2-ACSR-B-6X1' '2-ACSR-B-6X1' '2-ACSR-B-6X1' '2-ACSR-B-6X1']
New Line.450041329 Bus1=450041290.1     Bus2=450041331.1     LineCode=1/0-AL-TRXLPELCJ-25KV Phases= 1 Length=1.52   units=m
New Line.258443602 Phases= 1 Bus1=258443599.3     Bus2=258443604.3     Length=237.80 units=m  Spacing=VERTICAL-1-PH-60-1PH wires=['2-ACSR-B-6X1' '2-ACSR-B-6X1']
New Line.258443747 Phases= 1 Bus1=258443744.3     Bus2=258443749.3     Length=69.76  units=m  Spacing=VERTICAL-1-PH-60-1PH wires=['2-ACSR-B-6X1' '2-ACSR-B-6X1']
New Line.258406191 Phases= 1 Bus1=258406188.3     Bus2=258406193.3     Length=16.61  units=m  Spacing=VERTICAL-1-PH-60-1PH wires=['2-ACSR-B-6X1' '2-ACSR-B-6X1']
New Line.258443984 Phases= 1 Bus1=258443985.3     Bus2=258443986.3     Length=23.47  units=m  Spacing=VERTICAL-1-PH-60-1PH wires=['1/0-ACSR-B-6X1' '1/0-ACSR-B-6X1']
New Line.263395442 Phases= 1 Bus1=258426014.1     Bus2=263395444.1     Length=1.52   units=m  Spacing=VERTICAL-1-PH-60-1PH wires=['2-ACSR-B-6X1' '2-ACSR-B-6X1']
New Line.258406635 Phases= 1 Bus1=615922786.3     Bus2=258406637.3     Length=30.52  units=m  Spacing=VERTICAL-1-PH-60-1PH wires=['2-ACSR-B-6X1' '2-ACSR-B-6X1']
New Line.258426057 Phases= 1 Bus1=258426049.2     Bus2=258426059.2     Length=109.70 units=m  Spacing=VERTICAL-1-PH-60-1PH wires=['2-ACSR-B-6X1' '2-ACSR-B-6X1']
New Line.258444212 Phases= 1 Bus1=258444204.3     Bus2=258444214.3     Length=23.29  units=m  Spacing=VERTICAL-1-PH-60-1PH wires=['2-ACSR-B-6X1' '2-ACSR-B-6X1']
New Line.263733249 Phases= 1 Bus1=263733246.3     Bus2=258406223.3     Length=145.70 units=m  Spacing=VERTICAL-1-PH-60-1PH wires=['2-ACSR-B-6X1' '2-ACSR-B-6X1']
New Line.258444172 Phases= 3 Bus1=258444169.1.2.3 Bus2=258444174.1.2.3 Length=151.10 units=m  Spacing=8'-ARM-NON-CENTER-POST-3PH wires=['2-ACSR-B-6X1' '2-ACSR-B-6X1' '2-ACSR-B-6X1' '2-ACSR-B-6X1']
New Line.263960227 Bus1=259478708.2     Bus2=263960229.2     LineCode=1/0-AL-TRXLPELCJ-15KV Phases= 1 Length=1.53   units=m
New Line.260664749 Bus1=260664746.1     Bus2=260664736.1     LineCode=1/0-AL-TRXLPELCJ-15KV Phases= 1 Length=218.30 units=m
New Line.491242322 Phases= 1 Bus1=491242318.2     Bus2=491242317.2     Length=85.91  units=m  Spacing=VERTICAL-1-PH-104-1PH wires=['2-ACSR-B-6X1' '2-ACSR-B-6X1']
New Line.258406416 Phases= 1 Bus1=258406413.3     Bus2=258406418.3     Length=68.24  units=m  Spacing=VERTICAL-1-PH-60-1PH wires=['2-ACSR-B-6X1' '2-ACSR-B-6X1']
New Line.263399340 Phases= 1 Bus1=263399337.3     Bus2=258443881.3     Length=60.91  units=m  Spacing=VERTICAL-1-PH-60-1PH wires=['1/0-ACSR-B-6X1' '1/0-ACSR-B-6X1']
New Line.263733339 Phases= 1 Bus1=263733336.2     Bus2=258425797.2     Length=23.23  units=m  Spacing=VERTICAL-1-PH-60-1PH wires=['2-ACSR-B-6X1' '2-ACSR-B-6X1']
New Line.263733352 Phases= 3 Bus1=258443387.1.2.3 Bus2=263733354.1.2.3 Length=1.53   units=m  Spacing=HORIZ-LINE-POST-3PH wires=['2-ACSR-B-6X1' '2-ACSR-B-6X1' '2-ACSR-B-6X1' '2-ACSR-B-6X1']
New Line.260663813 Bus1=260663810.1     Bus2=260663790.1     LineCode=1/0-AL-HMWPECN-15KV Phases= 1 Length=536.40 units=m
New Line.263391520 Bus1=263391517.1     Bus2=260662941.1     LineCode=1/0-AL-HMWPECN-15KV Phases= 1 Length=153.40 units=m
New Line.258425688 Phases= 1 Bus1=258425680.1     Bus2=258425690.1     Length=179.00 units=m  Spacing=VERTICAL-1-PH-60-1PH wires=['2-ACSR-B-6X1' '2-ACSR-B-6X1']
New Line.258443869 Phases= 1 Bus1=258443870.3     Bus2=258443871.3     Length=22.93  units=m  Spacing=VERTICAL-1-PH-60-1PH wires=['1/0-ACSR-B-6X1' '1/0-ACSR-B-6X1']
New Line.258425441 Phases= 1 Bus1=258425373.2     Bus2=258425443.2     Length=87.79  units=m  Spacing=VERTICAL-1-PH-60-1PH wires=['2-ACSR-B-6X1' '2-ACSR-B-6X1']
New Line.259266062 Phases= 1 Bus1=258425867.1     Bus2=258425871.1     Length=279.00 units=m  Spacing=VERTICAL-1-PH-60-1PH wires=['2-ACSR-B-6X1' '2-ACSR-B-6X1']
New Line.258425366 Phases= 1 Bus1=258425363.2     Bus2=258425368.2     Length=177.50 units=m  Spacing=VERTICAL-1-PH-60-1PH wires=['2-ACSR-B-6X1' '2-ACSR-B-6X1']
New Line.620695955 Bus1=620695940.1     Bus2=620695957.1     LineCode=1/0-AL-TRXLPELCJ-25KV Phases= 1 Length=220.00 units=m
New Line.264148849 Bus1=264148846.3     Bus2=261434092.3     LineCode=1/0-AL-TRXLPELCJ-15KV Phases= 1 Length=58.84  units=m
New Line.258444118 Phases= 1 Bus1=258444108.2     Bus2=258444120.2     Length=36.21  units=m  Spacing=VERTICAL-1-PH-60-1PH wires=['2-ACSR-B-6X1' '2-ACSR-B-6X1']
New Line.264148867 Bus1=264148864.2     Bus2=261434126.2     LineCode=1/0-AL-TRXLPELCJ-15KV Phases= 1 Length=403.60 units=m
New Line.700042421 Phases= 1 Bus1=258443719.1     Bus2=700042420.1     Length=320.00 units=m  Spacing=VERTICAL-1-PH-60-1PH wires=['2-ACSR-B-6X1' '2-ACSR-B-6X1']
New Line.258425013 Phases= 1 Bus1=258425010.3     Bus2=258425015.3     Length=55.59  units=m  Spacing=VERTICAL-1-PH-60-1PH wires=['2-ACSR-B-6X1' '2-ACSR-B-6X1']
New Line.263733240 Phases= 1 Bus1=263733237.3     Bus2=258405853.3     Length=52.08  units=m  Spacing=VERTICAL-1-PH-60-1PH wires=['2-ACSR-B-6X1' '2-ACSR-B-6X1']
New Line.259108644 Phases= 3 Bus1=258425962.1.2.3 Bus2=259108646.1.2.3 Length=66.06  units=m  Spacing=HORIZ-LINE-POST-3PH wires=['2-ACSR-B-6X1' '2-ACSR-B-6X1' '2-ACSR-B-6X1' '2-ACSR-B-6X1']
New Line.258425215 Phases= 3 Bus1=258425212.1.2.3 Bus2=258425217.1.2.3 Length=82.75  units=m  Spacing=8'-ARM-NON-CENTER-POST-3PH wires=['1/0-ACSR-B-6X1' '1/0-ACSR-B-6X1' '1/0-ACSR-B-6X1' '1/0-ACSR-B-6X1']
New Line.258425576 Phases= 3 Bus1=258405784.1.2.3 Bus2=258425578.1.2.3 Length=33.98  units=m  Spacing=8'-ARM-NON-CENTER-POST-3PH wires=['1/0-ACSR-B-6X1' '1/0-ACSR-B-6X1' '1/0-ACSR-B-6X1' '1/0-ACSR-B-6X1']
New Line.258425790 Phases= 3 Bus1=258425782.1.2.3 Bus2=258425792.1.2.3 Length=62.37  units=m  Spacing=8'-ARM-NON-CENTER-POST-3PH wires=['2-ACSR-B-6X1' '2-ACSR-B-6X1' '2-ACSR-B-6X1' '2-ACSR-B-6X1']
New Line.258406655 Phases= 1 Bus1=258406647.3     Bus2=258406657.3     Length=88.88  units=m  Spacing=VERTICAL-1-PH-60-1PH wires=['2-ACSR-B-6X1' '2-ACSR-B-6X1']
New Line.263391470 Bus1=258406228.2     Bus2=263391472.2     LineCode=1/0-AL-HMWPECN-15KV Phases= 1 Length=1.52   units=m
New Line.258444054 Phases= 1 Bus1=258444051.3     Bus2=258444056.3     Length=63.29  units=m  Spacing=VERTICAL-1-PH-60-1PH wires=['2-ACSR-B-6X1' '2-ACSR-B-6X1']
New Line.258426032 Phases= 3 Bus1=258426033.1.2.3 Bus2=258426034.1.2.3 Length=73.73  units=m  Spacing=8'-ARM-NON-CENTER-POST-3PH wires=['2-ACSR-B-6X1' '2-ACSR-B-6X1' '2-ACSR-B-6X1' '2-ACSR-B-6X1']
New Line.258425673 Phases= 1 Bus1=258425665.1     Bus2=258425675.1     Length=187.30 units=m  Spacing=VERTICAL-1-PH-60-1PH wires=['2-ACSR-B-6X1' '2-ACSR-B-6X1']
New Line.258443627 Phases= 1 Bus1=258443584.1     Bus2=258443629.1     Length=132.40 units=m  Spacing=VERTICAL-1-PH-60-1PH wires=['2-ACSR-B-6X1' '2-ACSR-B-6X1']
New Line.258405981 Phases= 3 Bus1=258405943.1.2.3 Bus2=258405983.1.2.3 Length=159.50 units=m  Spacing=8'-ARM-STANDARD-3PH wires=['1/0-ACSR-B-6X1' '1/0-ACSR-B-6X1' '1/0-ACSR-B-6X1' '1/0-ACSR-B-6X1']
New Line.258425068 Phases= 3 Bus1=258425065.1.2.3 Bus2=258425070.1.2.3 Length=96.93  units=m  Spacing=8'-ARM-NON-CENTER-POST-3PH wires=['2-ACSR-B-6X1' '2-ACSR-B-6X1' '2-ACSR-B-6X1' '2-ACSR-B-6X1']
New Line.259596197 Phases= 3 Bus1=259596194.1.2.3 Bus2=258444208.1.2.3 Length=41.16  units=m  Spacing=8'-ARM-STANDARD-3PH wires=['2-ACSR-B-6X1' '2-ACSR-B-6X1' '2-ACSR-B-6X1' '2-ACSR-B-6X1']
New Line.258443477 Phases= 3 Bus1=258443474.1.2.3 Bus2=258443479.1.2.3 Length=32.44  units=m  Spacing=8'-ARM-NON-CENTER-POST-3PH wires=['2-ACSR-B-6X1' '2-ACSR-B-6X1' '2-ACSR-B-6X1' '2-ACSR-B-6X1']
New Line.263395199 Bus1=258425177.1     Bus2=263395201.1     LineCode=1/0-AL-HMWPECN-15KV Phases= 1 Length=1.52   units=m
New Line.258425601 Phases= 3 Bus1=258425598.1.2.3 Bus2=258425603.1.2.3 Length=44.62  units=m  Spacing=8'-ARM-STANDARD-3PH wires=['1/0-ACSR-B-6X1' '1/0-ACSR-B-6X1' '1/0-ACSR-B-6X1' '1/0-ACSR-B-6X1']
New Line.258443427 Phases= 3 Bus1=258443424.1.2.3 Bus2=258443429.1.2.3 Length=45.07  units=m  Spacing=HORIZ-LINE-POST-3PH wires=['2-ACSR-B-6X1' '2-ACSR-B-6X1' '2-ACSR-B-6X1' '2-ACSR-B-6X1']
New Line.263395195 Phases= 1 Bus1=263395192.3     Bus2=258425055.3     Length=159.10 units=m  Spacing=VERTICAL-1-PH-60-1PH wires=['2-ACSR-B-6X1' '2-ACSR-B-6X1']
New Line.258443742 Phases= 1 Bus1=258443739.3     Bus2=258443744.3     Length=66.24  units=m  Spacing=VERTICAL-1-PH-60-1PH wires=['2-ACSR-B-6X1' '2-ACSR-B-6X1']
New Line.263934803 Phases= 1 Bus1=263934800.3     Bus2=259446919.3     Length=18.32  units=m  Spacing=VERTICAL-1-PH-104-1PH wires=['2-ACSR-B-6X1' '2-ACSR-B-6X1']
New Line.258444227 Phases= 1 Bus1=258444224.2     Bus2=258444229.2     Length=235.20 units=m  Spacing=VERTICAL-1-PH-60-1PH wires=['2-ACSR-B-6X1' '2-ACSR-B-6X1']
New Line.258406236 Phases= 3 Bus1=258406233.1.2.3 Bus2=258406238.1.2.3 Length=97.15  units=m  Spacing=8'-ARM-STANDARD-3PH wires=['1/0-ACSR-B-6X1' '1/0-ACSR-B-6X1' '1/0-ACSR-B-6X1' '1/0-ACSR-B-6X1']
New Line.260011481 Phases= 3 Bus1=258405993.1.2.3 Bus2=258405997.1.2.3 Length=79.39  units=m  Spacing=8'-ARM-STANDARD-3PH wires=['1/0-ACSR-B-6X1' '1/0-ACSR-B-6X1' '1/0-ACSR-B-6X1' '1/0-ACSR-B-6X1']
New Line.258444217 Phases= 3 Bus1=258444204.1.2.3 Bus2=258444219.1.2.3 Length=177.80 units=m  Spacing=8'-ARM-NON-CENTER-POST-3PH wires=['2-ACSR-B-6X1' '2-ACSR-B-6X1' '2-ACSR-B-6X1' '2-ACSR-B-6X1']
New Line.699612984 Phases= 1 Bus1=258405622.2     Bus2=699612986.2     Length=1.54   units=m  Spacing=VERTICAL-1-PH-60-1PH wires=['2-ACSR-B-6X1' '2-ACSR-B-6X1']
New Line.258443954 Phases= 1 Bus1=258443951.3     Bus2=258443956.3     Length=50.74  units=m  Spacing=VERTICAL-1-PH-60-1PH wires=['1/0-ACSR-B-6X1' '1/0-ACSR-B-6X1']
New Line.258425496 Phases= 1 Bus1=258425483.3     Bus2=258425498.3     Length=392.60 units=m  Spacing=VERTICAL-1-PH-60-1PH wires=['4-ACSR-B-6X1' '4-ACSR-B-6X1']
New Line.258425531 Phases= 1 Bus1=258425528.3     Bus2=258425533.3     Length=103.80 units=m  Spacing=VERTICAL-1-PH-60-1PH wires=['2-ACSR-B-6X1' '2-ACSR-B-6X1']
New Line.263395384 Phases= 1 Bus1=263395381.1     Bus2=258425655.1     Length=188.10 units=m  Spacing=VERTICAL-1-PH-60-1PH wires=['2-ACSR-B-6X1' '2-ACSR-B-6X1']
New Line.258425416 Phases= 1 Bus1=258425413.2     Bus2=258425418.2     Length=123.30 units=m  Spacing=VERTICAL-1-PH-60-1PH wires=['2-ACSR-B-6X1' '2-ACSR-B-6X1']
New Line.263733253 Phases= 3 Bus1=258406438.1.2.3 Bus2=263733255.1.2.3 Length=1.53   units=m  Spacing=8'-ARM-NON-CENTER-POST-3PH wires=['1/0-ACSR-B-6X1' '1/0-ACSR-B-6X1' '1/0-ACSR-B-6X1' '1/0-ACSR-B-6X1']
New Line.258425230 Phases= 1 Bus1=384399842.2     Bus2=258425232.2     Length=36.70  units=m  Spacing=VERTICAL-1-PH-60-1PH wires=['2-ACSR-B-6X1' '2-ACSR-B-6X1']
New Line.259363665 Phases= 3 Bus1=FLAY_RET_16271201.1.2.3 Bus2=258405587.1.2.3 Length=9.98   units=m  Spacing=DBL-CKT-8'-ARMS-RIGHT/LEFT-3PH wires=['336-ACSR-B-18X1' '336-ACSR-B-18X1' '336-ACSR-B-18X1' '336-ACSR-B-18X1']
New Line.258405635 Phases= 3 Bus1=258405622.1.2.3 Bus2=258405637.1.2.3 Length=58.86  units=m  Spacing=HORIZ-LINE-POST-3PH wires=['336-AAC-B-19' '336-AAC-B-19' '336-AAC-B-19' '1/0-ACSR-B-6X1']
New Line.264148844 Bus1=259577439.3     Bus2=264148846.3     LineCode=1/0-AL-TRXLPELCJ-15KV Phases= 1 Length=1.51   units=m
New Line.258426047 Phases= 3 Bus1=258426044.1.2.3 Bus2=258426049.1.2.3 Length=92.26  units=m  Spacing=8'-ARM-NON-CENTER-POST-3PH wires=['2-ACSR-B-6X1' '2-ACSR-B-6X1' '2-ACSR-B-6X1' '2-ACSR-B-6X1']
New Line.258405767 Phases= 1 Bus1=258405764.2     Bus2=258405769.2     Length=43.48  units=m  Spacing=VERTICAL-1-PH-60-1PH wires=['2-ACSR-B-6X1' '2-ACSR-B-6X1']
New Line.620861421 Phases= 3 Bus1=620861418.1.2.3 Bus2=258425157.1.2.3 Length=45.91  units=m  Spacing=8'-ARM-STANDARD-3PH wires=['1/0-ACSR-B-6X1' '1/0-ACSR-B-6X1' '1/0-ACSR-B-6X1' '1/0-ACSR-B-6X1']
New Line.258425481 Phases= 1 Bus1=258425478.3     Bus2=258425483.3     Length=102.40 units=m  Spacing=VERTICAL-1-PH-60-1PH wires=['4-ACSR-B-6X1' '4-ACSR-B-6X1']
New Line.258444069 Phases= 3 Bus1=258425578.1.2.3 Bus2=258444071.1.2.3 Length=41.38  units=m  Spacing=8'-ARM-NON-CENTER-POST-3PH wires=['1/0-ACSR-B-6X1' '1/0-ACSR-B-6X1' '1/0-ACSR-B-6X1' '1/0-ACSR-B-6X1']
New Line.263733226 Phases= 1 Bus1=258405801.3     Bus2=263733228.3     Length=1.52   units=m  Spacing=VERTICAL-1-PH-60-1PH wires=['2-ACSR-B-6X1' '2-ACSR-B-6X1']
New Line.258443345 Phases= 1 Bus1=258426156.3     Bus2=258443347.3     Length=172.00 units=m  Spacing=VERTICAL-1-PH-60-1PH wires=['2-ACSR-B-6X1' '2-ACSR-B-6X1']
New Line.259126903 Phases= 3 Bus1=258425772.1.2.3 Bus2=258425776.1.2.3 Length=67.25  units=m  Spacing=8'-ARM-STANDARD-3PH wires=['1/0-ACSR-B-6X1' '2-ACSR-B-6X1' '1/0-ACSR-B-6X1' '2-ACSR-B-6X1']
New Line.258406361 Phases= 1 Bus1=258406358.1     Bus2=258406363.1     Length=231.40 units=m  Spacing=VERTICAL-1-PH-60-1PH wires=['2-ACSR-B-6X1' '2-ACSR-B-6X1']
New Line.260663853 Bus1=260663850.2     Bus2=260663855.2     LineCode=1/0-AL-HMWPECN-15KV Phases= 1 Length=178.60 units=m
New Line.258443350 Phases= 1 Bus1=258443347.3     Bus2=258443352.3     Length=75.73  units=m  Spacing=VERTICAL-1-PH-60-1PH wires=['2-ACSR-B-6X1' '2-ACSR-B-6X1']
New Line.258406538 Phases= 1 Bus1=258406535.3     Bus2=258406540.3     Length=369.60 units=m  Spacing=VERTICAL-1-PH-60-1PH wires=['2-ACSR-B-6X1' '2-ACSR-B-6X1']
New Line.263391385 Bus1=263391382.2     Bus2=260662886.2     LineCode=1/0-AL-HMWPECN-15KV Phases= 1 Length=115.50 units=m
New Line.258406026 Phases= 3 Bus1=258406023.1.2.3 Bus2=258406028.1.2.3 Length=87.77  units=m  Spacing=8'-ARM-STANDARD-3PH wires=['1/0-ACSR-B-6X1' '1/0-ACSR-B-6X1' '1/0-ACSR-B-6X1' '1/0-ACSR-B-6X1']
New Line.258405675 Phases= 1 Bus1=258405672.2     Bus2=258405677.2     Length=17.56  units=m  Spacing=VERTICAL-1-PH-60-1PH wires=['2-ACSR-B-6X1' '2-ACSR-B-6X1']
New Line.263391493 Phases= 1 Bus1=263391490.1     Bus2=258406333.1     Length=25.29  units=m  Spacing=VERTICAL-1-PH-60-1PH wires=['2-ACSR-B-6X1' '2-ACSR-B-6X1']
New Line.263395366 Phases= 1 Bus1=263395363.1     Bus2=258425625.1     Length=80.26  units=m  Spacing=VERTICAL-1-PH-60-1PH wires=['2-ACSR-B-6X1' '2-ACSR-B-6X1']
New Line.438022627 Phases= 1 Bus1=438022625.3     Bus2=426195246.3     Length=55.71  units=m  Spacing=VERTICAL-1-PH-60-1PH wires=['2-ACSR-B-6X1' '2-ACSR-B-6X1']
New Line.258405712 Phases= 1 Bus1=699613129.2     Bus2=258405714.2     Length=103.00 units=m  Spacing=VERTICAL-1-PH-60-1PH wires=['2-ACSR-B-6X1' '2-ACSR-B-6X1']
New Line.258405821 Phases= 3 Bus1=258405806.1.2.3 Bus2=258405823.1.2.3 Length=56.14  units=m  Spacing=8'-ARM-STANDARD-3PH wires=['1/0-ACSR-B-6X1' '1/0-ACSR-B-6X1' '1/0-ACSR-B-6X1' '1/0-ACSR-B-6X1']
New Line.258443874 Phases= 1 Bus1=258443871.3     Bus2=258443876.3     Length=138.60 units=m  Spacing=VERTICAL-1-PH-60-1PH wires=['1/0-ACSR-B-6X1' '1/0-ACSR-B-6X1']
New Line.258443597 Phases= 1 Bus1=258443594.3     Bus2=258443599.3     Length=154.10 units=m  Spacing=VERTICAL-1-PH-60-1PH wires=['2-ACSR-B-6X1' '2-ACSR-B-6X1']
New Line.620861452 Bus1=620861448.2     Bus2=620861437.2     LineCode=1/0-AL-TRXLPELCJ-25KV Phases= 1 Length=231.60 units=m
...
